INIT MASTER(S)
NASTRAN SYSTEM(442)=-1,SYSTEM(319)=1
ID BEAM FEA,Femap
SOL SESTATIC
TIME 10000
CEND
  TITLE = Analyse
  SUBTITLE = test
  LABEL = test
  ECHO = NONE
  DISPLACEMENT(PRINT) = ALL
  SPCFORCE(PRINT) = ALL
  OLOAD(PRINT) = ALL
  MPCFORCE(PRINT) = ALL
  GPFORCE(PRINT) = ALL
  FORCE(PRINT,CORNER) = ALL
  STRESS(PRINT,CORNER) = ALL
$ no loading defined...
BEGIN BULK
$ ***************************************************************************
$   Written by : beamsolver by numeric-GmbH
$   Version    : 2.8.0
$   Date       : 2021-05-10 09:29:32.278728
$ ***************************************************************************
$
PARAM,POST,-1
PARAM,OGEOM,NO
PARAM,AUTOSPC,NO
PARAM,K6ROT,100.
PARAM,GRDPNT,0
PARAM,CHECKOUT,NO
PARAM,PRTGPDT,YES
PARAM,PRTCSTM,YES
PARAM,PRTMGG,YES
PARAM,PRTPG,YES
$PARAM,EXTOUT,DMIGPCH

CORD2C         1       0      0.      0.      0.      0.      0.      1.+FEMAPC1
+FEMAPC1      1.      0.      1.        
CORD2S         2       0      0.      0.      0.      0.      0.      1.+FEMAPC2
+FEMAPC2      1.      0.      1.  
$
$ ### Spc ###
$--1---|---2---|---3---|---4---|---5---|---6---|---7---|---8---|---9---|---10--|
SPC1           1  123456       3
SPC1           1  123456       4
SPC1           1  123456       6
SPC1           1  123456       8
SPC1           1  123456      11
SPC1           1  123456      12
SPC1           1  123456      14
SPC1           1  123456      16
SPC1           1  123456      19
SPC1           1  123456      20
SPC1           1  123456      22
SPC1           1  123456      24
SPC1           1  123456      27
SPC1           1  123456      28
SPC1           1  123456      30
SPC1           1  123456      32
SPC1           1  123456      35
SPC1           1  123456      36
SPC1           1  123456      38
SPC1           1  123456      40
$ ... 148 like lines cut
$ ### Load Combinations ###
$--1---|---2---|---3---|---4---|---5---|---6---|---7---|---8---|---9---|---10--|
$ ### FORCES ###
$FOR/MOM     SID       G     CID     F/M      N1      N2      N3
$--1---|---2---|---3---|---4---|---5---|---6---|---7---|---8---|---9---|---10--|
$ ### GRIDS ###
$GRID         ID      CP      X1      X2      X3      CD      PS    SEID
$--1---|---2---|---3---|---4---|---5---|---6---|---7---|---8---|---9---|---10--|
GRID           1       0    382.  -108.5195.2358       0
GRID           2       0    382.   108.5195.2358       0
GRID           3       0    382.  -108.5194.2358       0
GRID           4       0    382.   108.5194.2358       0
GRID           5       0    382.   -83.1195.2358       0
GRID           6       0    382.   -83.1194.2358       0
GRID           7       0    382.    83.1195.2358       0
GRID           8       0    382.    83.1194.2358       0
GRID           9       0    403.  -110.7195.2358       0
GRID          10       0    403.   110.7195.2358       0
GRID          11       0    403.  -110.7194.2358       0
GRID          12       0    403.   110.7194.2358       0
GRID          13       0    403.   -83.1195.2358       0
GRID          14       0    403.   -83.1194.2358       0
GRID          15       0    403.    83.1195.2358       0
GRID          16       0    403.    83.1194.2358       0
GRID          17       0    424.  -112.8195.2358       0
GRID          18       0    424.   112.8195.2358       0
GRID          19       0    424.  -112.8194.2358       0
GRID          20       0    424.   112.8194.2358       0
$ ... 1045 like lines cut
$ ### MATERIALS ###
$MAT1        MID       E       G      NU     RHO       A    TREF      GE
$--1---|---2---|---3---|---4---|---5---|---6---|---7---|---8---|---9---|---10--|
$ Femap Material 1 : CB-MAT_151W0282-S41
MAT1           17348156.2762465.     .3336127.29      0.      0.      0.
$ Femap Material 2 : CB-MAT_151W0283
MAT1           21.0404+73911309.     .3336127.29      0.      0.      0.
$ Femap Material 3 : CB-MAT_151W0288
MAT1           38400752.3158177.     .3336127.29      0.      0.      0.
$ Femap Material 4 : CB-MAT_151W0281
MAT1           46887724.2589370.     .3336127.29      0.      0.      0.
$ Femap Material 5 : CB-MAT_151W0282-S43
MAT1           56415927.2412003.     .3336127.29      0.      0.      0.
$ Femap Material 6 : CB-MAT_151W0289
MAT1           65766861.2167993.     .3336127.29      0.      0.      0.
$ Femap Material 7 : Alu_7150-T77511
MAT1           7  1.04+73909774.     .3336127.29      0.      0.      0.
$ Femap Material 8 : Ti-6AL-4V
MAT1           8  1.69+76353383.     .3336127.29      0.      0.      0.
$ ### PBEAMS ###
$PBAR        PID     MID       A      I1      I2       J     NSM     ...+       
$+            C1      C2      D1      D2      E1      E2      F1      F2+       
$+            K1      K2     I12
$--1---|---2---|---3---|---4---|---5---|---6---|---7---|---8---|---9---|---10--|
$ Femap Property 1 : CB_151W0282-S41
PBAR           1       1 2.639441.82359318.23587.0632911      0.        +       
+             0.      0.      0.      0.      0.      0.      0.      0.+       
+             0.      0.      0.
$ Femap Property 2 : CB_151W0283-S41
PBAR           2       22.3751051.12455911.24559.0641857      0.        +       
+             0.      0.      0.      0.      0.      0.      0.      0.+       
+             0.      0.      0.
$ Femap Property 3 : CB_151W0288-S41
PBAR           3       32.9748561.39273913.92733.1449241      0.        +       
+             0.      0.      0.      0.      0.      0.      0.      0.+       
+             0.      0.      0.
$ Femap Property 4 : CB_151W0281-S43
PBAR           4       42.4914841.69867716.98674.0497097      0.        +       
+             0.      0.      0.      0.      0.      0.      0.      0.+       
+             0.      0.      0.
$ Femap Property 5 : CB_151W0282-S43
PBAR           5       5 2.639441.82359318.23587.0632911      0.        +       
+             0.      0.      0.      0.      0.      0.      0.      0.+       
+             0.      0.      0.
$ Femap Property 6 : CB_151W0288-S43
PBAR           6       32.9748561.39273913.92733.1449241      0.        +       
+             0.      0.      0.      0.      0.      0.      0.      0.+       
+             0.      0.      0.
$ Femap Property 7 : CB_151W0289-S43
PBAR           7       62.8929012.02883820.28833.0785593      0.        +       
+             0.      0.      0.      0.      0.      0.      0.      0.+       
+             0.      0.      0.
$ Femap Property 8 : ST_BAC1520-2656
PBAR           8       71.057436 .455255 .976521.0076099      0.        +       
+             0.      0.      0.      0.      0.      0.      0.      0.+       
+             0.      0.      0.
$ Femap Property 9 : ST_BAC1520-2657
PBAR           9       71.028936 .432551   .8528.0074819      0.        +       
+             0.      0.      0.      0.      0.      0.      0.      0.+       
+             0.      0.      0.
$ Femap Property 10 : ST_BAC1520-2658
PBAR          10       7 .995321 .409287 .751329.0073042      0.        +       
+             0.      0.      0.      0.      0.      0.      0.      0.+       
+             0.      0.      0.
$ Femap Property 11 : ST_BAC1520-2659
PBAR          11       7 .965313 .371817 .632905 .007304      0.        +       
+             0.      0.      0.      0.      0.      0.      0.      0.+       
+             0.      0.      0.
$ Femap Property 12 : ST_151W1291-2-4
PBAR          12       8 .937266 .411177 .667897 .007131      0.        +       
+             0.      0.      0.      0.      0.      0.      0.      0.+       
+             0.      0.      0.
$ Femap Property 13 : ST_151W1291-3-5-19
PBAR          13       8 .836635 .335295  .61685.0051454      0.        +       
+             0.      0.      0.      0.      0.      0.      0.      0.+       
+             0.      0.      0.
$ Femap Property 14 : ST_151W1291-1
PBAR          14       8 .931227 .387868 .664427.0063952      0.        +       
+             0.      0.      0.      0.      0.      0.      0.      0.+       
+             0.      0.      0.
$ Femap Property 15 : ST_151W1291-21
PBAR          15       8 .841835 .340247 .636654.0051539      0.        +       
+             0.      0.      0.      0.      0.      0.      0.      0.+       
+             0.      0.      0.
$ Femap Property 16 : ST_151W1291-7-13-14
PBAR          16       8 .844685 .342073 .643633.0051687      0.        +       
+             0.      0.      0.      0.      0.      0.      0.      0.+       
+             0.      0.      0.
$ Femap Property 17 : ST_151W1291-15-16
PBAR          17       8 .976947 .421137 .753915.0069117      0.        +       
+             0.      0.      0.      0.      0.      0.      0.      0.+       
+             0.      0.      0.
$ Femap Property 18 : ST_151W1291-9
PBAR          18       8 .917645 .366294 .745731.0057773      0.        +       
+             0.      0.      0.      0.      0.      0.      0.      0.+       
+             0.      0.      0.
$ Femap Property 19 : ST_151W1294-9-10
PBAR          19       7 .980047 .395551  .72844.0070969      0.        +       
+             0.      0.      0.      0.      0.      0.      0.      0.+       
+             0.      0.      0.
$ Femap Property 20 : ST_151W1294-13-14
PBAR          20       7 .943344 .351581 .605197.0070143      0.        +       
+             0.      0.      0.      0.      0.      0.      0.      0.+       
+             0.      0.      0.
$ Femap Property 21 : ST_151W1294-19-20
PBAR          21       7 1.05682 .454194 .972264.0075317      0.        +       
+             0.      0.      0.      0.      0.      0.      0.      0.+       
+             0.      0.      0.
$ ### PBUSHS ###
$PBUSH       PID       K      K1      K2      K3      K4      K5      K6
$--1---|---2---|---3---|---4---|---5---|---6---|---7---|---8---|---9---|---10--|
$ Femap Property 22 : CB_end
PBUSH         22       K    1.+9    1.+9    1.+9      0.      0.6000000.
$ Femap Property 23 : stanchions
PBUSH         23       K  38000.      0.      0.      0.      0.      0.
$ Femap Property 24 : Clip_151W0208_3
PBUSH         24       K73187.1550332.4541223.178703.29644177.42 94930.7
$ Femap Property 25 : Clip_151W0208_1_11_12
PBUSH         25       K66075.0737570.5434546.13 7005.9940999.0784468.73
$ Femap Property 26 : Clip_151W0207_1_2_4
PBUSH         26       K67030.4236391.2928339.857271.61739688.8485334.43
$ Femap Property 27 : Clip_151W0207_5
PBUSH         27       K67130.3131458.8127556.647250.26536655.9580530.86
$ Femap Property 28 : Clip_151W0208_5_6
PBUSH         28       K73072.7139128.38 36674.18247.151 40462.489268.98
$ Femap Property 29 : Clip_151W0208_4
PBUSH         29       K  66138.28952.2831123.856659.82937069.5878269.92
$ Femap Property 30 : Clip_151W1237_4_6
PBUSH         30       K581158.8130103.8250663.6139032.2148395.3395071.1
$ ### CBEAMS ###
$CBAR        EID     PID      GA      GB   X1/G0      X2      X3        +       
$+            PA      PB     W1A     W2A     W3A     W1B     W2B     W3B
$--1---|---2---|---3---|---4---|---5---|---6---|---7---|---8---|---9---|---10--|
CBAR           3       1       1     502      1.      0.      0.
CBAR           4       1       5     514      1.      0.      0.
CBAR           6       1       7     516      1.      0.      0.
CBAR          10       1       9     518      1.      0.      0.
CBAR          11       1      13     530      1.      0.      0.
CBAR          13       1      15     532      1.      0.      0.
CBAR          17       1      17     534      1.      0.      0.
CBAR          18       1      21     546      1.      0.      0.
CBAR          20       1      23     548      1.      0.      0.
CBAR          24       1      25     550      1.      0.      0.
CBAR          25       1      29     562      1.      0.      0.
CBAR          27       1      31     564      1.      0.      0.
CBAR          31       1      33     566      1.      0.      0.
CBAR          32       1      37     578      1.      0.      0.
CBAR          34       1      39     580      1.      0.      0.
CBAR          38       2      41     822      1.      0.      0.
CBAR          39       2      45     832      1.      0.      0.
CBAR          41       2      47     833      1.      0.      0.
CBAR          45       2      49     834      1.      0.      0.
CBAR          46       2      53     846      1.      0.      0.
$ ... 814 like lines cut
$ ### CBUSHS ###
$CBUSH       EID     PID      GA      GB   G0/X1      X2      X3     CID+       
$+             S    OCID      S1      S2      S3
$--1---|---2---|---3---|---4---|---5---|---6---|---7---|---8---|---9---|---10--|
CBUSH          1      22       3       1      0.     -1.      0.
CBUSH          2      22       4       2      0.     -1.      0.
CBUSH          5      23       6       5      0.     -1.      0.
CBUSH          7      23       8       7      0.     -1.      0.
CBUSH          8      22      11       9      0.     -1.      0.
CBUSH          9      22      12      10      0.     -1.      0.
CBUSH         12      23      14      13      0.     -1.      0.
CBUSH         14      23      16      15      0.     -1.      0.
CBUSH         15      22      19      17      0.     -1.      0.
CBUSH         16      22      20      18      0.     -1.      0.
CBUSH         19      23      22      21      0.     -1.      0.
CBUSH         21      23      24      23      0.     -1.      0.
CBUSH         22      22      27      25      0.     -1.      0.
CBUSH         23      22      28      26      0.     -1.      0.
CBUSH         26      23      30      29      0.     -1.      0.
CBUSH         28      23      32      31      0.     -1.      0.
CBUSH         29      22      35      33      0.     -1.      0.
CBUSH         30      22      36      34      0.     -1.      0.
CBUSH         33      23      38      37      0.     -1.      0.
CBUSH         35      23      40      39      0.     -1.      0.
$ ... 488 like lines cut
ENDDATA
