INIT MASTER(S)
NASTRAN SYSTEM(442)=-1,SYSTEM(319)=1
ID test,Femap
SOL SESTATIC
CEND
  TITLE = 1G_down
  ECHO = NONE
  DISPLACEMENT(PLOT) = ALL
  SPCFORCE(PLOT) = ALL
  OLOAD(PLOT) = ALL
  FORCE(PLOT,CORNER) = ALL
  STRESS(PLOT,CORNER) = ALL
  SPC = 1
  LOAD = 1
BEGIN BULK
$ ***************************************************************************
$   Written by : Femap with NX Nastran
$   Version    : 12.0.0a
$   Translator : NX Nastran
$   From Model : Z:\04-PROJECTS\NASCA_REVIVAL\TEST_PANELS\test_panels.modfem
$   Date       : Wed Dec 18 11:00:35 2019
$   Output To  : Z:\04-PROJECTS\NASCA_REVIVAL\TEST_PANELS\
$ ***************************************************************************
$
PARAM,PRGPST,YES
PARAM,POST,-1
PARAM,OGEOM,NO
PARAM,AUTOSPC,YES
PARAM,K6ROT,100.
PARAM,GRDPNT,0
PARAM,NOFISR,1
CORD2C         1       0      0.      0.      0.      0.      0.      1.+FEMAPC1
+FEMAPC1      1.      0.      1.        
CORD2S         2       0      0.      0.      0.      0.      0.      1.+FEMAPC2
+FEMAPC2      1.      0.      1.        
$ Femap with NX Nastran Coordinate System 9 : Rectangular Coordinate System
CORD2R         9       0      0.      0.      0.      0.      0.      1.+       
+             1.      0.      0.        
$ Femap with NX Nastran Coordinate System 10 : Rectangular Coordinate System
CORD2R        10       9      0.      0.      0.      0.      0.      1.+       
+             1.      0.      0.        
$ Femap with NX Nastran Load Set 1 : Gravity
GRAV           1       0      1.      0.      0.  -9810.
$ Femap with NX Nastran Constraint Set 1 : grounded
SPC1           1     123       1
SPC1           1     123       2
SPC1           1     123       3
SPC1           1     123       4
SPC1           1     123       5
SPC1           1     123      26
SPC1           1     123      27
SPC1           1     123      28
SPC1           1     123      29
SPC1           1     123      30
$ Femap with NX Nastran Property 1 : CBUSH1
PBUSH          1       K     10.     10.     10.                                        
$ Femap with NX Nastran Property 2 : plate
PSHELL         2       1      .5       1               1             1.1
$ Femap with NX Nastran Property 3 : SPRING/DAMPER Property
PBUSH          3       K  15000.  10000.  10000.                                        
$ Femap with NX Nastran Property 4 : plate_no_SM
PSHELL         4       1      .3       1               1              0.
$ Femap with NX Nastran Property 6 : NB220-0155-500
PCOMP          6         .017505                                        +       
+              2    .018      0.     YES       4    .464      0.     YES+       
+              2    .018      0.     YES
$ Femap with NX Nastran Property 7 : NL610-10633-750
PCOMP          7         .032805                                        +       
+              1     .02      0.     YES       5     .71      0.     YES+       
+              1     .02      0.     YES
$ Femap with NX Nastran Material 1 : 2024-T3 Sheet
MAT1           1  1.05+73947368.     .33      .1      0.      0.        
$ Femap with NX Nastran Material 2 : #181 Style EGlass/Epoxy
MAT8           23000000.3000000.     .12 300000.      0.      0.      0.+       
+             0.      0.      0.                                        +       
+                               
$ Femap with NX Nastran Material 4 : Nomex Core 1/8, 3.0#
MAT8           4      1.      1.      .5      1.   5000.   5000.      0.+       
+             0.      0.      0.                                        +       
+                               
$ Femap with NX Nastran Material 5 : 5052 Core 3/16, 4.4#
MAT8           5      1.      1.      .5      1.  49000.  49000.      0.+       
+             0.      0.      0.                                        +       
+                               
GRID           1       0      1.      .5      0.       0
GRID           2       0      1.      1.      0.       0
GRID           3       0      1.      2.      0.       0
GRID           4       0      1.      3.      0.       0
GRID           5       0      1.     3.5      0.       0
GRID           6       0      2.      0.      0.       0
GRID           7       0      2.      1.      0.       0
GRID           8       0      2.      2.      0.       0
GRID           9       0      2.      3.      0.       0
GRID          10       0      2.      4.      0.       0
GRID          11       0      3.      0.      0.       0
GRID          12       0      3.      1.      0.       0
GRID          13       0      3.      2.      0.       0
GRID          14       0      3.      3.      0.       0
GRID          15       0      3.      4.      0.       0
GRID          16       0      4.      0.      0.       0
GRID          17       0      4.      1.      0.       0
GRID          18       0      4.      2.      0.       0
GRID          19       0     .12    4.17      0.       0
GRID          20       0      0.      5.      0.       0
$ ... 25 like lines cut
CQUAD4         1       6       1       6       7       226.56505        
CQUAD4         2       6       2       7       8       3      0.        
CQUAD4         3       6       3       8       9       4      0.        
CQUAD4         4       6       4       9      10       5      0.        
CTRIA3         5       6      11       6      31    180.                
CQUAD4         6       6       7      12      13       8      0.        
CQUAD4         7       6       8      13      14       9      0.        
CQUAD4         8       6       9      14      15      10      0.        
CQUAD4         9       7      11      16      17      12      0.        
CQUAD4        10       7      12      17      18      13      0.        
CQUAD4        11       6      13      18      32      14      0.        
CQUAD4        12       6      14      32      33      15      0.        
CQUAD4        13       6      16      21      22      17      0.        
CQUAD4        14       6      17      22      23      18      0.        
CQUAD4        15       6      23      18      32      24    180.        
CQUAD4        16       6      32      24      25      33      0.        
CQUAD4        17       6      21      26      27      22-26.5651        
CQUAD4        18       6      22      27      28      23      0.        
CQUAD4        19       6      23      28      29      24      0.        
CQUAD4        20       6      29      24      25      30    180.        
CTRIA3        21       6      11      12      31    -90.                
CTRIA3        22       6      12       7      31    180.                
CTRIA3        23       6       7       6      31     90.                
CQUAD4        24       6      34      19      20      35    180.        
CQUAD4        25       6      34      10      37      35      0.        
CQUAD4        26       2      40      41      43      46    -90.        
CQUAD4        27       4      38      43      44      39      0.        +       
+                             .5      .5      .4      .3
CBUSH         28       3      39      10                               0
CBUSH         29       3       9      38                               0
CBUSH         30       3      36       8                               0
CBUSH         31       3      40      13                               0
CQUAD4        34       4      43      41      42      44      0.        +       
+                             .5      .5      .3      .4
CTRIA3        35       4      44      42      39    -45.                +       
+                             .4      .4      .3
CQUAD4        36       2      46      36      38      43   -135.        
CTRIA3        37       2      36      40      46      0.                
RBE2         100      42     123      15
RBE2         101       5     123      10      34      19
RBE3         200              41     123      1.  123456      14
RBE3         201              21     123      1.  123456      11      12
ENDDATA b4d1ddf0
